FoamFile
{
    version     2.0;
    format      ascii;
    class       dictionary;
    object      blockMeshDict;
}
convertToMeters 1;

vertices
(
    (-5 -5 -2)
    ( 5 -5 -2)
    ( 5  5 -2)
    (-5  5 -2)
    (-5 -5  2)
    ( 5 -5  2)
    ( 5  5  2)
    (-5  5  2)
);

blocks
(
    hex (0 1 2 3 4 5 6 7) (40 40 20) simpleGrading (1 1 1)
);

edges
(
);

boundary
(
    inlet
    {
        type patch;
        faces
        (
            (0 4 7 3)
        );
    }
    outlet
    {
        type patch;
        faces
        (
            (1 2 6 5)
        );
    }
    top
    {
        type patch;
        faces
        (
            (3 7 6 2)
        );
    }
    bottom
    {
        type patch;
        faces
        (
            (0 1 5 4)
        );
    }
    sides
    {
        type symmetryPlane;
        faces
        (
            (0 3 2 1)
            (4 5 6 7)
        );
    }
);

mergePatchPairs ();
