FoamFile
{
    version     2.0;
    format      ascii;
    class       dictionary;
    object      momentumTransport;
}

simulationType  laminar;  // or use RAS if you’re doing turbulence

